11
R1 1 2 1000
C1 2 0 1e-6
V1 1 0 1 0 0
.AC DEC 10 0.1 1e3