11
R1 1 2 100
L1 2 3 1  
C1 3 0 1e-6
V1 1 0 1 0 0
.AC OCT 10 100 200
