3
I1 1 0 1 0 0
R1 1 0 1
F1 2 0 1 0 3
L1 2 0 1e-6 
R2 2 0 1  
.AC DEC 2 10 1e6