11
V1 1 0 10 0 0
L1 1 2 1
L2 2 0 1
L3 3 0 4
K1 L2 L3 0.5
C1 3 0 2
G1 3 0 1 2 2
.AC OCT 2 1 1000
