3
I1 1 0 1 0 0
L1 1 0 1
R1 1 2 1000
L2 2 0 1
K1 L1 L2 -0.5   
.AC DEC 11 10 1e6