4
V1 1 0 0.1 0 1
O1 3 0 1 2
R1 2 0 1
L1 2 3 1e-6   
.AC DEC 11 10 1e6
