11
R1 1 2 1000
L1 2 0 1  
V1 1 0 1 0 0
.AC OCT 2 100 1e5
